<?xml version="1.0" encoding="UTF-8"?>

<additional>
    <!-- Shapes -->
    <poi id="ap11_1" color="red" layer="202.00" x="740.00" y="704.00"/>
    <poi id="ap11_2" color="red" layer="202.00" x="743.94" y="704.00"/>
    <poi id="ap11_3" color="red" layer="202.00" x="747.78" y="704.00"/>
    <poi id="ap11_4" color="red" layer="202.00" x="751.73" y="704.00"/>
    <poi id="ap11_5" color="red" layer="202.00" x="755.31" y="704.00"/>
    <poi id="ap12_1" color="red" layer="202.00" x="756.14" y="740.08"/>
    <poi id="ap12_2" color="red" layer="202.00" x="752.47" y="740.00"/>
    <poi id="ap12_3" color="red" layer="202.00" x="748.73" y="740.00"/>
    <poi id="ap12_4" color="red" layer="202.00" x="745.18" y="740.00"/>
    <poi id="ap12_5" color="red" layer="202.00" x="741.60" y="740.00"/>
    <poi id="ap13_1" color="red" layer="202.00" x="837.29" y="697.00"/>
    <poi id="ap13_2" color="red" layer="202.00" x="841.28" y="697.00"/>
    <poi id="ap13_3" color="red" layer="202.00" x="845.09" y="697.00"/>
    <poi id="ap13_4" color="red" layer="202.00" x="849.25" y="697.00"/>
    <poi id="ap13_5" color="red" layer="202.00" x="853.41" y="697.00"/>
    <poi id="ap14_1" color="red" layer="202.00" x="855.47" y="731.00"/>
    <poi id="ap14_2" color="red" layer="202.00" x="851.47" y="731.00"/>
    <poi id="ap14_3" color="red" layer="202.00" x="847.82" y="731.00"/>
    <poi id="ap14_4" color="red" layer="202.00" x="843.99" y="731.00"/>
    <poi id="ap14_5" color="red" layer="202.00" x="840.24" y="731.00"/>
    <poi id="ap17_1" color="red" layer="202.00" x="808.59" y="666.00"/>
    <poi id="ap17_2" color="red" layer="202.00" x="812.37" y="666.00"/>
    <poi id="ap17_3" color="red" layer="202.00" x="816.33" y="666.00"/>
    <poi id="ap17_4" color="red" layer="202.00" x="820.18" y="666.00"/>
    <poi id="ap17_5" color="red" layer="202.00" x="824.10" y="666.00"/>
    <poi id="ap18_1" color="red" layer="202.00" x="778.15" y="670.00"/>
    <poi id="ap18_2" color="red" layer="202.00" x="774.32" y="670.00"/>
    <poi id="ap18_3" color="red" layer="202.00" x="770.73" y="670.00"/>
    <poi id="ap18_4" color="red" layer="202.00" x="766.81" y="670.00"/>
    <poi id="ap18_5" color="red" layer="202.00" x="763.01" y="670.00"/>
    <poi id="ap7_1" color="red" layer="202.00" x="814.79" y="769.00"/>
    <poi id="ap7_2" color="red" layer="202.00" x="818.66" y="769.00"/>
    <poi id="ap7_3" color="red" layer="202.00" x="822.65" y="769.00"/>
    <poi id="ap7_4" color="red" layer="202.00" x="826.44" y="769.00"/>
    <poi id="ap7_5" color="red" layer="202.00" x="830.47" y="769.00"/>
    <poi id="ap8_1" color="red" layer="202.00" x="789.19" y="773.00"/>
    <poi id="ap8_2" color="red" layer="202.00" x="785.09" y="773.00"/>
    <poi id="ap8_3" color="red" layer="202.00" x="781.37" y="773.00"/>
    <poi id="ap8_4" color="red" layer="202.00" x="777.73" y="773.00"/>
    <poi id="ap8_5" color="red" layer="202.00" x="773.73" y="773.00"/>
    <poi id="bp11_1" color="red" layer="202.00" x="1477.32" y="857.00"/>
    <poi id="bp11_2" color="red" layer="202.00" x="1481.21" y="857.00"/>
    <poi id="bp11_3" color="red" layer="202.00" x="1485.03" y="857.00"/>
    <poi id="bp11_4" color="red" layer="202.00" x="1488.77" y="857.00"/>
    <poi id="bp11_5" color="red" layer="202.00" x="1492.61" y="857.00"/>
    <poi id="bp12_1" color="red" layer="202.00" x="1491.36" y="890.00"/>
    <poi id="bp12_2" color="red" layer="202.00" x="1487.81" y="890.00"/>
    <poi id="bp12_3" color="red" layer="202.00" x="1484.10" y="890.00"/>
    <poi id="bp12_4" color="red" layer="202.00" x="1480.51" y="890.00"/>
    <poi id="bp12_5" color="red" layer="202.00" x="1477.02" y="890.00"/>
    <poi id="bp13_1" color="red" layer="202.00" x="1578.71" y="860.00"/>
    <poi id="bp13_2" color="red" layer="202.00" x="1582.48" y="860.00"/>
    <poi id="bp13_3" color="red" layer="202.00" x="1586.05" y="860.00"/>
    <poi id="bp13_4" color="red" layer="202.00" x="1589.84" y="860.00"/>
    <poi id="bp13_5" color="red" layer="202.00" x="1594.15" y="860.00"/>
    <poi id="bp14_1" color="red" layer="202.00" x="1593.82" y="890.00"/>
    <poi id="bp14_2" color="red" layer="202.00" x="1590.31" y="890.00"/>
    <poi id="bp14_3" color="red" layer="202.00" x="1586.52" y="890.00"/>
    <poi id="bp14_4" color="red" layer="202.00" x="1582.93" y="890.00"/>
    <poi id="bp14_5" color="red" layer="202.00" x="1579.03" y="890.00"/>
    <poi id="bp17_1" color="red" layer="202.00" x="1552.09" y="823.00"/>
    <poi id="bp17_2" color="red" layer="202.00" x="1555.89" y="823.00"/>
    <poi id="bp17_3" color="red" layer="202.00" x="1559.57" y="823.00"/>
    <poi id="bp17_4" color="red" layer="202.00" x="1563.17" y="823.00"/>
    <poi id="bp17_5" color="red" layer="202.00" x="1566.77" y="823.00"/>
    <poi id="bp18_1" color="red" layer="202.00" x="1525.00" y="824.00"/>
    <poi id="bp18_2" color="red" layer="202.00" x="1521.29" y="824.00"/>
    <poi id="bp18_3" color="red" layer="202.00" x="1517.64" y="824.00"/>
    <poi id="bp18_4" color="red" layer="202.00" x="1513.91" y="824.00"/>
    <poi id="bp18_5" color="red" layer="202.00" x="1510.17" y="824.00"/>
    <poi id="bp7_1" color="red" layer="202.00" x="1550.03" y="923.00"/>
    <poi id="bp7_2" color="red" layer="202.00" x="1553.66" y="923.00"/>
    <poi id="bp7_3" color="red" layer="202.00" x="1557.12" y="923.00"/>
    <poi id="bp7_4" color="red" layer="202.00" x="1560.65" y="923.00"/>
    <poi id="bp7_5" color="red" layer="202.00" x="1564.11" y="923.00"/>
    <poi id="bp8_1" color="red" layer="202.00" x="1523.31" y="924.00"/>
    <poi id="bp8_2" color="red" layer="202.00" x="1519.79" y="924.00"/>
    <poi id="bp8_3" color="red" layer="202.00" x="1516.19" y="924.00"/>
    <poi id="bp8_4" color="red" layer="202.00" x="1512.46" y="924.00"/>
    <poi id="bp8_5" color="red" layer="202.00" x="1508.79" y="924.00"/>
    <poi id="cp10_1" color="red" layer="202.00" x="900.00" y="977.21"/>
    <poi id="cp10_2" color="red" layer="202.00" x="900.00" y="969.87"/>
    <poi id="cp10_3" color="red" layer="202.00" x="900.00" y="962.36"/>
    <poi id="cp10_4" color="red" layer="202.00" x="900.00" y="954.89"/>
    <poi id="cp10_5" color="red" layer="202.00" x="900.00" y="947.43"/>
    <poi id="cp5_1" color="red" layer="202.00" x="732.00" y="968.80"/>
    <poi id="cp5_2" color="red" layer="202.00" x="732.00" y="976.49"/>
    <poi id="cp5_3" color="red" layer="202.00" x="731.92" y="984.26"/>
    <poi id="cp5_4" color="red" layer="202.00" x="731.92" y="992.09"/>
    <poi id="cp5_5" color="red" layer="202.00" x="731.92" y="999.70"/>
    <poi id="cp7_1" color="red" layer="202.00" x="835.00" y="956.34"/>
    <poi id="cp7_2" color="red" layer="202.00" x="835.00" y="963.65"/>
    <poi id="cp7_3" color="red" layer="202.00" x="835.00" y="971.46"/>
    <poi id="cp7_4" color="red" layer="202.00" x="835.00" y="978.92"/>
    <poi id="cp7_5" color="red" layer="202.00" x="835.00" y="986.46"/>
    <poi id="cp8_1" color="red" layer="202.00" x="796.00" y="985.71"/>
    <poi id="cp8_2" color="red" layer="202.00" x="796.00" y="978.30"/>
    <poi id="cp8_3" color="red" layer="202.00" x="796.00" y="970.84"/>
    <poi id="cp8_4" color="red" layer="202.00" x="796.00" y="963.33"/>
    <poi id="cp8_5" color="red" layer="202.00" x="796.00" y="955.83"/>
</additional>
